** written by FreeCAD inp file writer for CalculiX,Abaqus meshes
** highest dimension mesh elements only.

** Nodes
*Node, NSET=Nall
1, 5, -1.224646799147e-15, 0
2, 5, -1.224646799147e-15, 200
3, 5, -1.224646799147e-15, 2.597402597403
4, 5, -1.224646799147e-15, 5.194805194805
5, 5, -1.224646799147e-15, 7.792207792208
6, 5, -1.224646799147e-15, 10.38961038961
7, 5, -1.224646799147e-15, 12.98701298701
8, 5, -1.224646799147e-15, 15.58441558442
9, 5, -1.224646799147e-15, 18.18181818182
10, 5, -1.224646799147e-15, 20.77922077922
11, 5, -1.224646799147e-15, 23.37662337662
12, 5, -1.224646799147e-15, 25.97402597403
13, 5, -1.224646799147e-15, 28.57142857143
14, 5, -1.224646799147e-15, 31.16883116883
15, 5, -1.224646799147e-15, 33.76623376623
16, 5, -1.224646799147e-15, 36.36363636364
17, 5, -1.224646799147e-15, 38.96103896104
18, 5, -1.224646799147e-15, 41.55844155844
19, 5, -1.224646799147e-15, 44.15584415584
20, 5, -1.224646799147e-15, 46.75324675325
** ... 7802 like lines cut


** Volume elements
*Element, TYPE=C3D10, ELSET=Evolumes
2438, 4692, 728, 4710, 4746, 4841, 4839, 4840, 4843, 4842, 4844
2439, 4692, 479, 342, 4710, 4846, 2619, 4845, 4840, 4847, 4848
2440, 4688, 468, 1239, 4758, 4850, 2918, 4849, 4852, 4851, 4853
2441, 1238, 1220, 4680, 4755, 2822, 4854, 4855, 4857, 4856, 4858
2442, 816, 4683, 4731, 4743, 4861, 4859, 4860, 4863, 4862, 4864
2443, 208, 4624, 4715, 4724, 4867, 4865, 4866, 4869, 4868, 4870
2444, 4678, 1174, 677, 4808, 4872, 3903, 4871, 4874, 4873, 4875
2445, 1072, 1076, 4703, 4711, 4530, 4876, 4877, 4879, 4878, 4880
2446, 4808, 677, 4678, 4816, 4875, 4871, 4874, 4882, 4881, 4883
2447, 463, 1228, 4682, 4756, 3200, 4884, 4885, 4887, 4886, 4888
2448, 4708, 42, 1079, 4820, 4890, 1620, 4889, 4892, 4891, 4893
2449, 1079, 4702, 4708, 4820, 4895, 4894, 4889, 4893, 4896, 4892
2450, 1082, 1200, 4694, 4711, 4351, 4897, 4898, 4900, 4899, 4901
2451, 639, 468, 1239, 4688, 2941, 2918, 3207, 4902, 4850, 4849
2452, 4699, 1033, 4731, 4743, 4905, 4903, 4904, 4907, 4906, 4864
2453, 1078, 894, 4703, 4711, 4399, 4908, 4909, 4911, 4910, 4880
2454, 1200, 4694, 4711, 4765, 4897, 4901, 4899, 4913, 4912, 4914
2455, 4718, 290, 4684, 4723, 4917, 4915, 4916, 4919, 4918, 4920
2456, 4711, 1076, 4703, 4777, 4878, 4876, 4880, 4922, 4921, 4923
2457, 1033, 816, 4731, 4743, 4285, 4860, 4903, 4906, 4863, 4864
** ... 3967 like lines cut

** Define element set Eall
*ELSET, ELSET=Eall
Evolumes



***********************************************************
** Element sets for materials and FEM element type (solid, shell, beam, fluid)
*ELSET,ELSET=SolidMaterialSolid
Evolumes

***********************************************************
** constraints fixed node sets
** FixedTop
*NSET,NSET=FixedTop
1,
156,
157,
158,
159,
160,
161,
162,
163,
164,
165,
166,
167,
168,
169,
170,
171,
172,
173,
174,
** ... 57 like lines cut

** Physical constants for SI(mm) unit system with Kelvins
*PHYSICAL CONSTANTS, ABSOLUTE ZERO=0, STEFAN BOLTZMANN=5.670374419e-11

***********************************************************
** Materials
** see information about units at file end
** FreeCAD material name: Generic_Wood_Soft
** SolidMaterial
*MATERIAL, NAME=SolidMaterial
*ELASTIC
100,0.3
*DENSITY
6E-10

***********************************************************
** Sections
*SOLID SECTION, ELSET=SolidMaterialSolid, MATERIAL=SolidMaterial

***********************************************************
** At least one step is needed to run an CalculiX analysis of FreeCAD
*STEP, INC=2000
*STATIC


***********************************************************
** Fixed Constraints
** FixedTop
*BOUNDARY
FixedTop,1
FixedTop,2
FixedTop,3


***********************************************************
** Self weight Constraint
** GravitySideways
*DLOAD
Eall,GRAV,9810,1,0,0


***********************************************************
** Outputs --> frd file
*NODE FILE
U
*EL FILE
S, E
** outputs --> dat file
** reaction forces for Constraint fixed
*NODE PRINT, NSET=FixedTop, TOTALS=ONLY
RF

*OUTPUT, FREQUENCY=1
***********************************************************
*END STEP

***********************************************************
** CalculiX Input file
**   written by    --> FreeCAD 1.0.2
**   written on    --> Wed Apr 22 09:28:16 2026
**   file name     --> 
**   analysis name --> Analysis
**
**
***********************************************************
**  About units:
**  See ccx manual, ccx does not know about any unit.
**  Golden rule: The user must make sure that the numbers they provide have consistent units.
**  The user is the FreeCAD calculix writer module ;-)
**
**  The unit system which is used at Guido Dhondt's company: mm, N, s, K
**  Since Length and Mass are connected by Force, if Length is mm the Mass is in t to get N
**  The following units are used to write to inp file:
**
**  Length: mm (this includes the mesh geometry)
**  Mass: t
**  TimeSpan: s
**  Temperature: K
**
**  This leads to:
**  Force: N
**  Pressure: N/mm^2 == MPa (Young's Modulus has unit Pressure)
**  Density: t/mm^3
**  Gravity: mm/s^2
**  Thermal conductivity: t*mm/K/s^3 == as W/m/K == kW/mm/K
**  Specific Heat: mm^2/s^2/K = J/kg/K == kJ/t/K
**
